[TITLE]
;;Project Title/Notes

[OPTIONS]
;;Option             Value
FLOW_UNITS           LPS
INFILTRATION         HORTON
FLOW_ROUTING         DYNWAVE
LINK_OFFSETS         DEPTH
MIN_SLOPE            0
ALLOW_PONDING        NO
SKIP_STEADY_STATE    NO

START_DATE           08/23/2013
START_TIME           00:00:00
REPORT_START_DATE    08/23/2013
REPORT_START_TIME    00:00:00
END_DATE             08/23/2013
END_TIME             03:00:00
SWEEP_START          01/01
SWEEP_END            12/31
DRY_DAYS             0
REPORT_STEP          00:01:00
WET_STEP             00:05:00
DRY_STEP             01:00:00
ROUTING_STEP         0:00:01 

INERTIAL_DAMPING     PARTIAL
NORMAL_FLOW_LIMITED  BOTH
FORCE_MAIN_EQUATION  D-W
VARIABLE_STEP        0.00
LENGTHENING_STEP     0
MIN_SURFAREA         1.14
MAX_TRIALS           8
HEAD_TOLERANCE       0.0015
SYS_FLOW_TOL         5
LAT_FLOW_TOL         5

[EVAPORATION]
;;Evap Data      Parameters
;;-------------- ----------------
CONSTANT         0
DRY_ONLY         NO

[RAINGAGES]
;;Gage           Format    Interval SCF      Source    
;;-------------- --------- ------ ------ ----------
5                INTENSITY 00:05    1        TIMESERIES Cero            
4                INTENSITY 0:05     1.0      TIMESERIES Cero            

[SUBCATCHMENTS]
;;Subcatchment   Rain Gage        Outlet           Area     %Imperv  Width    %Slope   CurbLen  Snow Pack       
;;-------------- ---------------- ---------------- -------- -------- -------- -------- -------- ----------------
C_PMI92748       5                PMI92748         0.6495508574 96.21238516 25.97289658 5.37550735 0                        
C_PMP93182       5                PMP93182         18.91652682 23.0338327 170.0874939 40.97052765 0                        
C_PMP92904       5                PMP92904         0.6012817697 93.29539192 31.77423286 3.21964717 0                        
C_PMP92903       5                PMP92903         1.124351033 85.33682321 41.68134689 4.31516933 0                        
C_PMI92766       5                PMI92766         2.089131096 100      63.90579987 3.91529226 0                        
C_PMI92813       5                PMI92813         9.988169392 16.07304799 134.3740387 32.88208008 0                        
C_PMP93199       5                PMP93199         0.3377374485 87.74770102 14.86067295 11.62504196 0                        
C_PMP92936       5                PMP92936         1.495975282 81.28821502 48.68779373 5.45680428 0                        
C_PMP93043       5                PMP93043         0.2799885297 90.65639378 11.96000385 9.81134796 0                        
C_PMI92774       5                PMI92774         0.8638003743 86.46554369 38.5354538 10.22016335 0                        
C_PMP93042       5                PMP93042         0.3229745424 99.86639736 14.86067295 13.43728638 0                        
C_PMI92787       5                PMI92787         0.2373708721 99.05065901 38.5354538 6.77210712 0                        
C_PMP93041       5                PMP93041         1.142538498 100      46.99223328 4.20200205 0                        
C_PMP92907       5                PMP92907         0.1693718818 1.517119518 11.96000385 6.77210712 0                        
C_PMP92902       5                PMP92902         0.4141262033 86.87126951 21.86711884 13.42389584 0                        
C_PMI92775       5                PMI92775         0.6212828709 64.7145815 28.87356758 4.72087717 0                        
C_PMI92764       5                PMI92764         0.5516225158 65.65385063 31.52900887 9.76515865 0                        
C_PMP92827       5                PMP92827         1.47627198 100      48.68779373 3.96888518 0                        
C_PMP92935       5                PMP92935         0.1804744266 23.30163859 14.86067295 6.08956718 0                        
C_PMP92828       5                PMP92828         0.05661908984 82.47331879 3.50322318 4.04775858 0                        
C_PMP92901       5                PMP92901         0.690088392 99.2430221 38.5354538 4.04775858 0                        
C_PMP92965       5                PMP92965         0.3542035817 88.21898776 21.86711884 4.46645784 0                        
C_PMI92722       5                PMI92722         0.3520838491 72.00636103 21.86711884 16.58799553 0                        
C_PMP93107       5                PMP93107         0.4698415983 83.87915479 31.52900887 6.77275848 0                        
C_PMP92934       5                PMP92934         0.632785854 84.15395342 28.87356758 4.9467392 0                        
C_PMP92964       5                PMP92964         0.9734427378 100      44.58201981 4.14956474 0                        
C_PMP93077       5                PMP93077         0.3341514724 66.00784689 18.96644974 5.09089661 0                        
C_PMP92900       5                PMP92900         0.09493334462 100      21.86711884 3.44276571 0                        
C_PMP93040       5                PMP93040         1.47240936 100      48.68779373 3.66285205 0                        
C_PMP93198       5                PMP93198         0.4496612514 100      21.86711884 3.44276571 0                        
C_PMI92747       5                PMI92747         12.01710902 6.382095751 136.3496246 45.06731796 0                        
C_PMP93004       5                PMP93004         0.6296775171 51.95177051 31.77423286 10.40425014 0                        
C_PMP93039       5                PMP93039         1.431479754 100      48.68779373 4.01130486 0                        
C_PMP92933       5                PMP92933         0.9337002627 100      45.54190063 4.76717567 0                        
C_PMI92735       5                PMI92735         1.253101347 100      42.88645554 3.9161787 0                        
C_PMP92864       5                PMP92864         0.9904932674 100      46.99223328 3.21304297 0                        
C_PMP106155      4                PMP106155        1.1536965 81.13220032 34.67490387 1.98789573 0                        
C_PMP93003       5                PMP93003         1.050269816 100      44.58201981 3.49490237 0                        
C_PMP93002       5                PMP93002         1.00536092 100      34.67490387 4.15724659 0                        
C_PMP106385      4                PMP106385        0.3454707403 100      14.86067295 1.77976906 0                        
C_PMP93205       5                PMP93205         0.5297464386 100      21.86711884 2.52304292 0                        
C_PMP93000       5                PMP93000         0.8357930232 100      41.68134689 2.79862261 0                        
C_PMP106386      4                PMP106386        0.1204960194 100      11.96000385 1.8974216 0                        
C_PMCI106387     4                PMCI106387       0.07790524071 100      10.5096693 1.54616094 0                        
C_PMI92786       5                PMI92786         1.133207261 100      42.88645554 3.75138068 0                        
C_PMP106384      4                PMP106384        0.3754694095 100      25.97289658 1.54616094 0                        
C_PMP92863       5                PMP92863         1.151268178 100      51.58846283 2.98743653 0                        
C_PMP93075       4                PMP93075         0.6041576751 100      21.86711884 1.55139685 0                        
C_PMP92999       4                PMP92999         0.8437761539 100      24.76778793 1.4885335 0                        
C_PMI92792       5                PMI92792         0.8162431736 100      41.68134689 2.55202961 0                        
C_PMP93036       5                PMP93036         0.7762987635 100      38.7806778 3.25899982 0                        
C_PMP92896       4                PMP92896         0.4925957578 100      28.87356758 1.78134  0                        
C_PMI92734       4                PMI92734         1.000301632 100      44.58201981 1.06952834 0                        
C_PMI92751       4                PMI92751         0.4571620768 100      21.86711884 1.11322236 0                        
C_PMP92996       5                PMP92996         0.3519790536 100      24.52256203 2.3397789 0                        
C_PMP92865       5                PMP92865         0.06499044699 100      4.95355749 1.78028595 0                        
C_PMP92928       4                PMP92928         0.6693851914 100      21.86711884 0.44413975 0                        
C_PMP92876       5                PMP92876         0.2792634056 100      18.96644974 1.78028595 0                        
C_PMP93101       4                PMP93101         0.5696273982 100      21.86711884 0.74936569 0                        
C_PMI92736       4                PMI92736         0.4730585659 100      21.86711884 0.77238756 0                        
C_PMP93099       4                PMP93099         0.6550868882 100      38.7806778 0.97756696 0                        
C_PMP93073       4                PMP93073         0.638255811 100      38.7806778 1.14110088 0                        
C_PMI92754       4                PMI92754         1.161101643 100      41.68134689 0.84801143 0                        
C_PMP93108       4                PMP93108         0.2500344329 100      14.86067295 0.95573366 0                        
C_PMP92955       4                PMP92955         1.073982134 100      44.58201981 1.1955061 0                        
C_PMP92926       4                PMP92926         0.2769991113 100      17.51611519 0.784141 0                        
C_PMP92895       4                PMP92895         0.4008425182 100      24.76778793 0.97499728 0                        
C_PMP93031       4                PMP93031         0.6898222869 100      38.7806778 1.20525062 0                        
C_PMI92782       4                PMI92782         0.9957386795 100      44.58201981 0.87868613 0                        
C_PMP92925       4                PMP92925         1.145721947 100      41.68134689 0.28655142 0                        
C_PMP92893       4                PMP92893         0.8413280594 100      41.68134689 0.58934009 0                        
C_PMP93095       4                PMP93095         1.204750387 100      44.58201981 0.2070653 0                        
C_PMP92991       4                PMP92991         0.9526697421 100      38.7806778 0.71456516 0                        
C_PMP92990       4                PMP92990         0.6611474291 100      38.7806778 0.63161796 0                        
C_PMP93029       4                PMP93029         0.9208842924 100      44.58201981 0.88720208 0                        
C_PMP92988       4                PMP92988         0.4396206862 100      24.76778793 0.7990579 0                        
C_PMP92855       4                PMP92855         0.3818978046 100      21.86711884 0.6215896 0                        
C_PMP92891       4                PMP92891         0.7060293541 88.96899528 34.67490387 1.5511868 0                        
C_PMP93025       4                PMP93025         0.3793011776 82.9442007 18.96644974 0.21495444 0                        
C_PMP93024       4                PMP93024         0.1242629136 100      4.95355749 0.21495444 0                        
C_CRE06          5                CRE06            0.4328727949 28.60092527 21.86711884 6.86806488 0                        
C_CRE09          5                CRE09            1.438067936 100      49.89290237 7.90967798 0                        

[SUBAREAS]
;;Subcatchment   N-Imperv   N-Perv     S-Imperv   S-Perv     PctZero    RouteTo    PctRouted 
;;-------------- ---------- ---------- ---------- ---------- ---------- ---------- ----------
C_PMI92748       0.01525    0.021      1.88       3.75       0          OUTLET    
C_PMP93182       0.01525    0.1        1.88       5          10         OUTLET    
C_PMP92904       0.01525    0.021      1.88       3.75       13.86748856 OUTLET    
C_PMP92903       0.01525    0.021      1.88       3.75       6.155890143 OUTLET    
C_PMI92766       0.01525    0.021      1.88       3.75       2.610852461 OUTLET    
C_PMI92813       0.01525    0.1        1.88       5          10         OUTLET    
C_PMP93199       0.01525    0.021      1.88       3.75       9.705140738 OUTLET    
C_PMP92936       0.01525    0.021      1.88       3.75       8.749092569 OUTLET    
C_PMP93043       0.01525    0.021      1.88       3.75       20.4267803 OUTLET    
C_PMI92774       0.01525    0.021      1.88       3.75       5.85477896 OUTLET    
C_PMP93042       0.01525    0.021      1.88       3.75       9.421481826 OUTLET    
C_PMI92787       0.01525    0.021      1.88       3.75       0          OUTLET    
C_PMP93041       0.01525    0.021      1.88       3.75       8.97845568 OUTLET    
C_PMP92907       0.01525    0.021      1.88       3.75       100        OUTLET    
C_PMP92902       0.01525    0.021      1.88       3.75       6.090333939 OUTLET    
C_PMI92775       0.01525    0.021      1.88       3.75       0          OUTLET    
C_PMI92764       0.01525    0.021      1.88       3.75       32.88663804 OUTLET    
C_PMP92827       0.01525    0.021      1.88       3.75       10.79074031 OUTLET    
C_PMP92935       0.01525    0.021      1.88       3.75       87.07354625 OUTLET    
C_PMP92828       0.01525    0.021      1.88       3.75       72.73518476 OUTLET    
C_PMP92901       0.01525    0.021      1.88       3.75       13.32735172 OUTLET    
C_PMP92965       0.01525    0.021      1.88       3.75       21.4922215 OUTLET    
C_PMI92722       0.01525    0.021      1.88       3.75       44.53991813 OUTLET    
C_PMP93107       0.01525    0.021      1.88       3.75       12.51644751 OUTLET    
C_PMP92934       0.01525    0.021      1.88       3.75       16.01231304 OUTLET    
C_PMP92964       0.01525    0.021      1.88       3.75       11.75327767 OUTLET    
C_PMP93077       0.01525    0.021      1.88       3.75       33.57724232 OUTLET    
C_PMP92900       0.01525    0.021      1.88       3.75       39.25148515 OUTLET    
C_PMP93040       0.01525    0.021      1.88       3.75       8.709209135 OUTLET    
C_PMP93198       0.01525    0.021      1.88       3.75       17.48388558 OUTLET    
C_PMI92747       0.01525    0.1        1.88       5          10         OUTLET    
C_PMP93004       0.01525    0.021      1.88       3.75       31.14758634 OUTLET    
C_PMP93039       0.01525    0.021      1.88       3.75       10.11260286 OUTLET    
C_PMP92933       0.01525    0.021      1.88       3.75       14.29662436 OUTLET    
C_PMI92735       0.01525    0.021      1.88       3.75       13.61283848 OUTLET    
C_PMP92864       0.01525    0.021      1.88       3.75       19.54974646 OUTLET    
C_PMP106155      0.01525    0.021      1.88       3.75       12.75324986 OUTLET    
C_PMP93003       0.01525    0.021      1.88       3.75       10.87000131 OUTLET    
C_PMP93002       0.01525    0.021      1.88       3.75       7.334645574 OUTLET    
C_PMP106385      0.01525    0.021      1.88       3.75       6.850342743 OUTLET    
C_PMP93205       0.01525    0.021      1.88       3.75       12.51023702 OUTLET    
C_PMP93000       0.01525    0.021      1.88       3.75       18.79567801 OUTLET    
C_PMP106386      0.01525    0.021      1.88       3.75       15.51621633 OUTLET    
C_PMCI106387     0.01525    0.021      1.88       3.75       6.292823672 OUTLET    
C_PMI92786       0.01525    0.021      1.88       3.75       9.971741251 OUTLET    
C_PMP106384      0.01525    0.021      1.88       3.75       29.26279071 OUTLET    
C_PMP92863       0.01525    0.021      1.88       3.75       8.735317874 OUTLET    
C_PMP93075       0.01525    0.021      1.88       3.75       11.475729  OUTLET    
C_PMP92999       0.01525    0.021      1.88       3.75       9.394673707 OUTLET    
C_PMI92792       0.01525    0.021      1.88       3.75       5.433339561 OUTLET    
C_PMP93036       0.01525    0.021      1.88       3.75       15.41068618 OUTLET    
C_PMP92896       0.01525    0.021      1.88       3.75       19.25657894 OUTLET    
C_PMI92734       0.01525    0.021      1.88       3.75       11.9668613 OUTLET    
C_PMI92751       0.01525    0.021      1.88       3.75       19.90459801 OUTLET    
C_PMP92996       0.01525    0.021      1.88       3.75       7.902433313 OUTLET    
C_PMP92865       0.01525    0.021      1.88       3.75       0.031147033 OUTLET    
C_PMP92928       0.01525    0.021      1.88       3.75       10.26821168 OUTLET    
C_PMP92876       0.01525    0.021      1.88       3.75       11.60781874 OUTLET    
C_PMP93101       0.01525    0.021      1.88       3.75       11.42204437 OUTLET    
C_PMI92736       0.01525    0.021      1.88       3.75       5.0601276  OUTLET    
C_PMP93099       0.01525    0.021      1.88       3.75       16.56576665 OUTLET    
C_PMP93073       0.01525    0.021      1.88       3.75       25.08833219 OUTLET    
C_PMI92754       0.01525    0.021      1.88       3.75       14.42654089 OUTLET    
C_PMP93108       0.01525    0.021      1.88       3.75       5.310329267 OUTLET    
C_PMP92955       0.01525    0.021      1.88       3.75       7.842866628 OUTLET    
C_PMP92926       0.01525    0.021      1.88       3.75       21.8174252 OUTLET    
C_PMP92895       0.01525    0.021      1.88       3.75       9.876070939 OUTLET    
C_PMP93031       0.01525    0.021      1.88       3.75       14.99411269 OUTLET    
C_PMI92782       0.01525    0.021      1.88       3.75       11.68586517 OUTLET    
C_PMP92925       0.01525    0.021      1.88       3.75       14.69851984 OUTLET    
C_PMP92893       0.01525    0.021      1.88       3.75       7.769652975 OUTLET    
C_PMP93095       0.01525    0.021      1.88       3.75       10.51753399 OUTLET    
C_PMP92991       0.01525    0.021      1.88       3.75       4.255241234 OUTLET    
C_PMP92990       0.01525    0.021      1.88       3.75       16.4911316 OUTLET    
C_PMP93029       0.01525    0.021      1.88       3.75       20.65878482 OUTLET    
C_PMP92988       0.01525    0.021      1.88       3.75       5.909764945 OUTLET    
C_PMP92855       0.01525    0.021      1.88       3.75       7.104709782 OUTLET    
C_PMP92891       0.01525    0.021      1.88       3.75       15.98542225 OUTLET    
C_PMP93025       0.01525    0.021      1.88       3.75       22.06581105 OUTLET    
C_PMP93024       0.01525    0.021      1.88       3.75       32.23560935 OUTLET    
C_CRE06          0.01525    0.021      1.88       3.75       2.378868682 OUTLET    
C_CRE09          0.01525    0.021      1.88       3.75       0          OUTLET    

[INFILTRATION]
;;Subcatchment   MaxRate    MinRate    Decay      DryTime    MaxInfil  
;;-------------- ---------- ---------- ---------- ---------- ----------
C_PMI92748       91.46973392 10         7          7          0         
C_PMP93182       81.99439825 10         7          7          0         
C_PMP92904       91.06135487 10         7          7          0         
C_PMP92903       89.94715525 10         7          7          0         
C_PMI92766       92         10         7          7          0         
C_PMI92813       81.08949624 10         7          7          0         
C_PMP93199       90.28467814 10         7          7          0         
C_PMP92936       89.3803501 10         7          7          0         
C_PMP93043       90.69189513 10         7          7          0         
C_PMI92774       90.10517612 10         7          7          0         
C_PMP93042       91.98129563 10         7          7          0         
C_PMI92787       91.86709226 10         7          7          0         
C_PMP93041       92         10         7          7          0         
C_PMP92907       78.21239673 10         7          7          0         
C_PMP92902       90.16197773 10         7          7          0         
C_PMI92775       87.06004141 10         7          7          0         
C_PMI92764       87.19153909 10         7          7          0         
C_PMP92827       92         10         7          7          0         
C_PMP92935       81.2622294 10         7          7          0         
C_PMP92828       89.54626463 10         7          7          0         
C_PMP92901       91.89402309 10         7          7          0         
C_PMP92965       90.35065829 10         7          7          0         
C_PMI92722       88.08089054 10         7          7          0         
C_PMP93107       89.74308167 10         7          7          0         
C_PMP92934       89.78155348 10         7          7          0         
C_PMP92964       92         10         7          7          0         
C_PMP93077       87.24109856 10         7          7          0         
C_PMP92900       92         10         7          7          0         
C_PMP93040       92         10         7          7          0         
C_PMP93198       92         10         7          7          0         
C_PMI92747       79.82967245 10         7          7          0         
C_PMP93004       85.27324787 10         7          7          0         
C_PMP93039       92         10         7          7          0         
C_PMP92933       92         10         7          7          0         
C_PMI92735       92         10         7          7          0         
C_PMP92864       92         10         7          7          0         
C_PMP106155      89.35850805 10         7          7          0         
C_PMP93003       92         10         7          7          0         
C_PMP93002       92         10         7          7          0         
C_PMP106385      92         10         7          7          0         
C_PMP93205       92         10         7          7          0         
C_PMP93000       92         10         7          7          0         
C_PMP106386      92         10         7          7          0         
C_PMCI106387     92         10         7          7          0         
C_PMI92786       92         10         7          7          0         
C_PMP106384      92         10         7          7          0         
C_PMP92863       92         10         7          7          0         
C_PMP93075       92         10         7          7          0         
C_PMP92999       92         10         7          7          0         
C_PMI92792       92         10         7          7          0         
C_PMP93036       92         10         7          7          0         
C_PMP92896       92         10         7          7          0         
C_PMI92734       92         10         7          7          0         
C_PMI92751       92         10         7          7          0         
C_PMP92996       92         10         7          7          0         
C_PMP92865       92         10         7          7          0         
C_PMP92928       92         10         7          7          0         
C_PMP92876       92         10         7          7          0         
C_PMP93101       92         10         7          7          0         
C_PMI92736       92         10         7          7          0         
C_PMP93099       92         10         7          7          0         
C_PMP93073       92         10         7          7          0         
C_PMI92754       92         10         7          7          0         
C_PMP93108       92         10         7          7          0         
C_PMP92955       92         10         7          7          0         
C_PMP92926       92         10         7          7          0         
C_PMP92895       92         10         7          7          0         
C_PMP93031       92         10         7          7          0         
C_PMI92782       92         10         7          7          0         
C_PMP92925       92         10         7          7          0         
C_PMP92893       92         10         7          7          0         
C_PMP93095       92         10         7          7          0         
C_PMP92991       92         10         7          7          0         
C_PMP92990       92         10         7          7          0         
C_PMP93029       92         10         7          7          0         
C_PMP92988       92         10         7          7          0         
C_PMP92855       92         10         7          7          0         
C_PMP92891       90.45565934 10         7          7          0         
C_PMP93025       89.6121881 10         7          7          0         
C_PMP93024       92         10         7          7          0         
C_CRE06          82.00412954 10         7          7          0         
C_CRE09          92         10         7          7          0         

[JUNCTIONS]
;;Junction       Invert     Dmax       Dinit      Dsurch     Aponded   
;;-------------- ---------- ---------- ---------- ---------- ----------
PMI92748         2571.981   1.48       0          0          0         
PMP93182         2587.646   2.604      0          0          0         
PMP92904         2571.426   1.17       0          0          0         
PMP92903         2571.381   2.42       0          0          0         
PMI92766         2569.214   1.53       0          0          0         
PMI92813         2585.935   1.4        0          0          0         
PMP93199         2585.48    1.53       0          0          0         
PMP92936         2570.82    3.11       0          0          0         
PMP93043         2583.341   2.38       0          0          0         
PMI92774         2575.588   1.245      0          0          0         
PMP93042         2580.227   1.28       0          0          0         
PMI92787         2575.798   1.345      0          0          0         
PMP93041         2568.378   1.65       0          0          0         
PMP92907         2575.349   1.33       0          0          0         
PMP92902         2576.122   2.24       0          0          0         
PMI92775         2572.072   1.895      0          0          0         
PMI92764         2575.26    2.0608682  0          0          0         
PMP92827         2565.407   1.28       0          0          0         
PMP92935         2571.995   1.21       0          0          0         
PMP92828         2567.748   2.57       0          0          0         
PMP92901         2568.141   2.26       0          0          0         
PMP92965         2571.564   1.35       0          0          0         
PMI92722         2578.573   5.6        0          0          0         
PMP93107         2574.534   2.253      0          0          0         
PMP92934         2570.058   1.57       0          0          0         
PMP92964         2568.387   2.54       0          0          0         
PMP93077         2567.874   1.89       0          0          0         
PMP92900         2565.143   4.115      0          0          0         
PMP93040         2563.968   2.025      0          0          0         
PMP93198         2564.588   2.61       0          0          0         
PMI92747         2577.052   5.35       0          0          0         
PMP93004         2573.25    2.251      0          0          0         
PMP93039         2563.597   2.995      0          0          0         
PMP92933         2567.97    1.72       0          0          0         
PMI92735         2563.671   2.45       0          0          0         
PMP92864         2561.864   2.63       0          0          0         
PMP106155        2559       0.91       0          0          0         
PMP93003         2565.839   1.76       0          0          0         
PMP93002         2558.599   2.125      0          0          0         
PMP106385        2558.65    1.11       0          0          0         
PMP93205         2557.152   2.37       0          0          0         
PMP93000         2563.077   1.83       0          0          0         
PMP106386        2558.6     1.18       0          0          0         
PMCI106387       2558.41    1.5        0          0          0         
PMI92786         2560.655   1.315      0          0          0         
PMP106384        2556.495   3.485      0          0          0         
PMP92863         2561.411   2.38       0          0          0         
PMP93075         2555.291   2.38       0          0          0         
PMP92999         2554.659   2.36       0          0          0         
PMI92792         2556.615   3.348      0          0          0         
PMP93036         2558.57    2.494      0          0          0         
PMP92896         2553.389   1.94       0          0          0         
PMI92734         2555.972   2.736      0          0          0         
PMI92751         2554.358   0.87       0          0          0         
PMP92996         2556.769   2.27       0          0          0         
PMP92865         2556.21    2.753      0          0          0         
PMP92928         2552.518   2.84       0          0          0         
PMP92876         2556.138   2.19       0          0          0         
PMP93101         2552.422   2.81       0          0          0         
PMI92736         2552.882   1.38       0          0          0         
PMP93099         2555.549   2.43       0          0          0         
PMP93073         2552.373   2.863      0          0          0         
PMI92754         2555.038   1.38       0          0          0         
PMP93108         2552.384   1.87       0          0          0         
PMP92955         2554.98    2.29       0          0          0         
PMP92926         2551.242   2.808      0          0          0         
PMP92895         2551.66    2.51       0          0          0         
PMP93031         2553.853   1.97       0          0          0         
PMI92782         2553.31    2.1        0          0          0         
PMP92925         2548.969038 3.07       0          0          0         
PMP92893         2553.299   2.13       0          0          0         