[TITLE]
;;Project Title/Notes

[OPTIONS]
;;Option             Value
FLOW_UNITS           LPS
INFILTRATION         HORTON
FLOW_ROUTING         DYNWAVE
LINK_OFFSETS         DEPTH
MIN_SLOPE            0
ALLOW_PONDING        NO
SKIP_STEADY_STATE    NO

START_DATE           08/23/2013
START_TIME           00:00:00
REPORT_START_DATE    08/23/2013
REPORT_START_TIME    00:00:00
END_DATE             08/23/2013
END_TIME             02:00:00
SWEEP_START          01/01
SWEEP_END            12/31
DRY_DAYS             0
REPORT_STEP          00:05:00
WET_STEP             00:05:00
DRY_STEP             01:00:00
ROUTING_STEP         0:00:05 

INERTIAL_DAMPING     PARTIAL
NORMAL_FLOW_LIMITED  BOTH
FORCE_MAIN_EQUATION  D-W
VARIABLE_STEP        0.75
LENGTHENING_STEP     0
MIN_SURFAREA         1.14
MAX_TRIALS           8
HEAD_TOLERANCE       0.0015
SYS_FLOW_TOL         5
LAT_FLOW_TOL         5

[EVAPORATION]
;;Evap Data      Parameters
;;-------------- ----------------
CONSTANT         0
DRY_ONLY         NO

[RAINGAGES]
;;Gage           Format    Interval SCF      Source    
;;-------------- --------- ------ ------ ----------
5                INTENSITY 00:05    1        TIMESERIES 5               
1                INTENSITY 0:05     1.0      TIMESERIES 1               
2                INTENSITY 0:05     1.0      TIMESERIES 2               
3                INTENSITY 0:05     1.0      TIMESERIES 3               
4                INTENSITY 0:05     1.0      TIMESERIES 4               

[SUBCATCHMENTS]
;;Subcatchment   Rain Gage        Outlet           Area     %Imperv  Width    %Slope   CurbLen  Snow Pack       
;;-------------- ---------------- ---------------- -------- -------- -------- -------- -------- ----------------
C_CRE01          1                CRE01            0.110010808 100      11.96000385 3.42630482 0                        
C_CRE02          1                CRE02            0.478822212 100      24.52256203 2.0806458 0                        
C_CRE03          1                CRE03            0.352487099 100      21.86711884 2.06416845 0                        
C_CRE04          1                CRE04            0.239875157 100      17.51611519 2.06416845 0                        
C_CRE05          1                CRE05            0.413636077 100      24.52256203 2.35263038 0                        
C_CRE06          5                CRE06            0.432872795 28.60092527 21.86711884 6.86806488 0                        
C_CRE07          4                CRE07            0.242292134 90.35889052 14.86067295 0.53479195 0                        
C_CRE08          3                CRE08            0.158303543 100      14.86067295 1.00108922 0                        
C_CRE09          5                CRE09            1.438067936 100      49.89290237 7.90967798 0                        
C_DESC           1                DESC             4.275907465 97.47393903 94.11758423 1.04855216 0                        
C_PMC98455       2                PMC98455         0.48251529 72.97868074 28.87356758 0.95667046 0                        
C_PMC98457       2                PMC98457         0.263746169 100      17.51611519 0.8591674 0                        
C_PMC98478       1                PMC98478         0.084243218 100      10.5096693 0        0                        
C_PMCI106387     4                PMCI106387       0.077905241 100      10.5096693 1.54616094 0                        
C_PMI105964      1                PMI105964        0.189169034 100      14.86067295 4.5949564 0                        
C_PMI105971      4                PMI105971        0.674164221 100      21.86711884 0        0                        
C_PMI106004      1                PMI106004        0.271566023 100      21.86711884 1.25748956 0                        
C_PMI106007      4                PMI106007        0.384519342 79.39607471 17.51611519 1.18435097 0                        
C_PMI106008      1                PMI106008        0.593355826 65.09164541 34.67490387 0        0                        
C_PMI60590       1                PMI60590         0.433743546 100      31.52900887 4.45804548 0                        
C_PMI92722       5                PMI92722         0.352083849 72.00636103 21.86711884 16.58799553 0                        
C_PMI92729       2                PMI92729         0.796872536 100      41.68134689 0.21158665 0                        
C_PMI92730       2                PMI92730         0.29899918 100      21.86711884 0.69917494 0                        
C_PMI92731       2                PMI92731         0.402483805 100      24.52256203 0.06646183 0                        
C_PMI92732       3                PMI92732         0.269753229 100      17.51611519 6.84114408 0                        
C_PMI92733       4                PMI92733         0.972724413 100      44.58201981 1.08797336 0                        
C_PMI92734       4                PMI92734         1.000301632 100      44.58201981 1.06952834 0                        
C_PMI92735       5                PMI92735         1.253101347 100      42.88645554 3.9161787 0                        
C_PMI92736       4                PMI92736         0.473058566 100      21.86711884 0.77238756 0                        
C_PMI92737       2                PMI92737         0.238641732 100      10.5096693 0.70442283 0                        
C_PMI92738       1                PMI92738         0.194135038 100      14.86067295 0.463009 0                        
C_PMI92739       2                PMI92739         0.274643876 100      21.86711884 0.94599468 0                        
C_PMI92740       1                PMI92740         1.126490017 100      45.54190063 0.39898875 0                        
C_PMI92741       2                PMI92741         0.162457458 100      4.95355749 0.46705094 0                        
C_PMI92742       1                PMI92742         1.356789721 92.42026524 53.99868011 0.56277114 0                        
C_PMI92743       2                PMI92743         0.746748698 92.86279073 31.77423286 0.81164986 0                        
C_PMI92744       3                PMI92744         0.325411181 80.44694644 21.86711884 8.19600964 0                        
C_PMI92745       3                PMI92745         0.509975666 96.90697232 24.76778793 3.25127673 0                        
C_PMI92747       5                PMI92747         12.01710902 6.382095751 136.3496246 45.06731796 0                        
C_PMI92748       5                PMI92748         0.649550857 96.21238516 25.97289658 5.37550735 0                        
C_PMI92749       4                PMI92749         1.114104677 100      42.88645554 0.68914998 0                        
C_PMI92750       4                PMI92750         0.732444816 100      38.7806778 0.52850038 0                        
C_PMI92751       4                PMI92751         0.457162077 100      21.86711884 1.11322236 0                        
C_PMI92752       2                PMI92752         0.755229171 91.10484653 34.67490387 0.03088803 0                        
C_PMI92753       3                PMI92753         0.976474279 54.93192304 41.68134689 3.06652498 0                        
C_PMI92754       4                PMI92754         1.161101643 100      41.68134689 0.84801143 0                        
C_PMI92755       2                PMI92755         0.52063106 100      24.52256203 0.64872134 0                        
C_PMI92756       3                PMI92756         0.597796751 100      31.77423286 7.13084555 0                        
C_PMI92757       2                PMI92757         0.177387482 100      11.96000385 0.85661572 0                        
C_PMI92758       1                PMI92758         0.199105082 82.28871164 14.86067295 0.57906407 0                        
C_PMI92759       2                PMI92759         0.764511789 99.53903174 38.7806778 0.66804767 0                        
C_PMI92760       4                PMI92760         0.947765614 100      34.67490387 0.78007132 0                        
C_PMI92761       4                PMI92761         1.005026205 100      44.58201981 0.42480636 0                        
C_PMI92762       4                PMI92762         0.695592707 100      34.67490387 0.7964884 0                        
C_PMI92763       4                PMI92763         1.390994196 80.05204913 48.68779373 1.40262222 0                        
C_PMI92764       5                PMI92764         0.551622516 65.65385063 31.52900887 9.76515865 0                        
C_PMI92765       4                PMI92765         0.701957284 100      34.67490387 0.5052169 0                        
C_PMI92766       5                PMI92766         2.089131096 100      63.90579987 3.91529226 0                        
C_PMI92767       2                PMI92767         0.503584518 100      28.87356758 0.5514878 0                        
C_PMI92768       2                PMI92768         0.32080744 100      18.96644974 0.9369809 0                        
C_PMI92770       1                PMI92770         0.710871922 100      34.67490387 0.22922832 0                        
C_PMI92771       3                PMI92771         0.144871621 100      4.95355749 16.95136261 0                        
C_PMI92772       5                PMI92772         2.607771472 100      51.58846283 3.74159336 0                        
C_PMI92773       3                PMI92773         0.196613261 100      14.86067295 2.09035373 0                        
C_PMI92774       5                PMI92774         0.863800374 86.46554369 38.5354538 10.22016335 0                        
C_PMI92775       5                PMI92775         0.621282871 64.7145815 28.87356758 4.72087717 0                        
C_PMI92776       1                PMI92776         0.354854302 100      24.52256203 0.94145328 0                        
C_PMI92777       2                PMI92777         0.425781052 100      21.86711884 0.95882654 0                        
C_PMI92778       2                PMI92778         0.311661763 100      21.86711884 0.37075821 0                        
C_PMI92779       2                PMI92779         0.256208797 100      17.51611519 1.17463386 0                        
C_PMI92780       3                PMI92780         0.385712373 100      14.86067295 2.95885253 0                        
C_PMI92781       3                PMI92781         0.648949503 79.72845872 31.77423286 3.40349269 0                        
C_PMI92782       4                PMI92782         0.99573868 100      44.58201981 0.87868613 0                        
C_PMI92783       2                PMI92783         0.874785254 100      41.68134689 0.81441087 0                        
C_PMI92784       3                PMI92784         0.24796282 100      11.96000385 5.41730213 0                        
C_PMI92785       3                PMI92785         1.214970846 97.72737427 52.54834747 2.63251066 0                        
C_PMI92786       5                PMI92786         1.133207261 100      42.88645554 3.75138068 0                        
C_PMI92787       5                PMI92787         0.237370872 99.05065901 38.5354538 6.77210712 0                        
C_PMI92788       1                PMI92788         0.439238795 100      24.76778793 0.44626546 0                        
C_PMI92789       1                PMI92789         0.493998036 100      31.52900887 0.50317979 0                        
C_PMI92790       3                PMI92790         0.079985477 100      10.5096693 25.18501472 0                        
C_PMI92791       3                PMI92791         0.729322431 66.16449884 32.9793396 9.98324108 0                        
C_PMI92792       5                PMI92792         0.816243174 100      41.68134689 2.55202961 0                        
C_PMI92793       2                PMI92793         1.160100712 100      45.54190063 0.57131529 0                        
C_PMI92794       1                PMI92794         0.885052091 100      38.5354538 0.10247175 0                        
C_PMI92795       3                PMI92795         0.284472504 100      17.51611519 2.66012239 0                        
C_PMI92796       2                PMI92796         0.858772451 100      41.68134689 1.00540388 0                        
C_PMI92797       3                PMI92797         9.979128982 2.049096663 131.2293243 42.375893 0                        
C_PMI92799       1                PMI92799         0.344185725 100      18.96644974 0.13529706 0                        
C_PMI92800       1                PMI92800         0.0580472 75.27042306 4.95355749 1.03752387 0                        
C_PMI92801       1                PMI92801         0.998901504 100      31.77423286 0        0                        
C_PMI92802       1                PMI92802         0.343317065 100      21.86711884 0.01819057 0                        
C_PMI92803       1                PMI92803         0.099157666 100      10.5096693 0.73893505 0                        
C_PMI92804       1                PMI92804         2.809478355 96.8457743 74.30335999 0.21313262 0                        
C_PMI92806       2                PMI92806         0.154240792 58.90802557 10.5096693 0.37564176 0                        
C_PMI92807       2                PMI92807         0.275204376 73.47697785 18.96644974 1.16083789 0                        
C_PMI92808       3                PMI92808         0.274157305 99.85237241 18.96644974 1.30361414 0                        
C_PMI92809       2                PMI92809         0.396426822 100      21.86711884 0.25858685 0                        
C_PMI92810       2                PMI92810         0.200481935 100      17.51611519 0.49101204 0                        
C_PMI92811       2                PMI92811         0.301685599 88.79428533 24.52256203 0.80170649 0                        
C_PMI92812       4                PMI92812         0.449644524 100      18.96644974 0.72378176 0                        
C_PMI92813       5                PMI92813         9.988169392 16.07304799 134.3740387 32.88208008 0                        
C_PMI92819       4                PMI92819         0.411373401 100      24.76778793 1.13997352 0                        
C_PMP105957      1                PMP105957        2.120277063 97.87305683 49.89290237 2.16433191 0                        
C_PMP105960      1                PMP105960        0.094622217 100      10.5096693 1.0252353 0                        
C_PMP105962      1                PMP105962        0.065303128 100      10.5096693 4.061975 0                        
C_PMP105968      1                PMP105968        0.021173237 100      3.50322318 0.9608674 0                        
C_PMP105970      1                PMP105970        0.113544883 100      10.5096693 0.10812199 0                        
C_PMP105972      1                PMP105972        0.197697304 100      14.86067295 1.40473092 0                        
C_PMP106006      1                PMP106006        0.061828425 100      4.95355749 2.03802133 0                        
C_PMP106064      1                PMP106064        0.184811584 91.31869504 11.96000385 4.95876884 0                        
C_PMP106065      1                PMP106065        0.092946006 100      10.5096693 3.8193059 0                        
C_PMP106066      1                PMP106066        0.119309033 100      11.96000385 1.37537289 0                        
C_PMP106067      1                PMP106067        0.125327853 28.13693185 10.5096693 1.37537289 0                        
C_PMP106068      1                PMP106068        0.28533354 100      14.86067295 0.76281768 0                        
C_PMP106069      1                PMP106069        0.360244028 100      24.52256203 1.55732036 0                        
C_PMP106070      1                PMP106070        0.427130812 100      17.51611519 0.03934669 0                        
C_PMP106071      1                PMP106071        0.132394296 89.59243655 10.5096693 2.32711601 0                        
C_PMP106072      1                PMP106072        0.418847815 100      17.51611519 0.2019932 0                        
C_PMP106073      1                PMP106073        0.130867417 100      10.5096693 1.40473092 0                        
C_PMP106074      1                PMP106074        0.018496009 100      3.50322318 0        0                        
C_PMP106075      1                PMP106075        0.339457943 100      18.96644974 0.38995013 0                        
C_PMP106076      1                PMP106076        0.021875933 100      3.50322318 0        0                        
C_PMP106077      1                PMP106077        0.153272452 69.93123059 11.96000385 1.60236788 0                        
C_PMP106078      1                PMP106078        0.385217697 100      18.96644974 1.12674785 0                        
C_PMP106081      1                PMP106081        0.343208065 81.3407158 24.52256203 0.40443408 0                        
C_PMP106082      4                PMP106082        0.030888085 100      3.50322318 2.03802133 0                        
C_PMP106083      4                PMP106083        0.08729206 71.79181123 10.5096693 0.58227891 0                        
C_PMP106084      4                PMP106084        0.200681666 58.68036999 11.96000385 1.19491696 0                        
C_PMP106085      1                PMP106085        0.656688017 80.42013263 34.67490387 0.00133866 0                        
C_PMP106086      1                PMP106086        0.20383102 100      14.86067295 1.25748956 0                        
C_PMP106087      1                PMP106087        0.342663744 100      18.96644974 0.10449995 0                        
C_PMP106155      4                PMP106155        1.1536965 81.13220032 34.67490387 1.98789573 0                        
C_PMP106384      4                PMP106384        0.37546941 100      25.97289658 1.54616094 0                        
C_PMP106385      4                PMP106385        0.34547074 100      14.86067295 1.77976906 0                        
C_PMP106386      4                PMP106386        0.120496019 100      11.96000385 1.8974216 0                        
C_PMP108534      2                PMP108534        0.185856218 100      10.5096693 1.16822457 0                        
C_PMP108535      3                PMP108535        0.105254976 100      10.5096693 1.57182002 0                        
C_PMP108536      2                PMP108536        0.246648499 100      21.86711884 1.57182002 0                        
C_PMP108537      2                PMP108537        0.252685065 100      21.86711884 0.83558691 0                        
C_PMP108538      2                PMP108538        0.198980997 100      11.96000385 2.06319404 0                        
C_PMP115623      1                PMP115623        0.380830944 100      14.86067295 0.463009 0                        
C_PMP115624      1                PMP115624        0.445917372 80.75986841 18.96644974 0.48027152 0                        
C_PMP60972       1                PMP60972         0.363001444 100      21.86711884 0.25183874 0                        
C_PMP62782       1                PMP62782         0.285991205 100      21.86711884 0        0                        
C_PMP63233       1                PMP63233         0.151113261 100      14.86067295 0        0                        
C_PMP63245       1                PMP63245         0.239816272 100      21.86711884 6.69549608 0                        
C_PMP63246       1                PMP63246         0.083997255 100      10.5096693 4.71591902 0                        
C_PMP63313       2                PMP63313         0.76359061 100      24.76778793 0.59335762 0                        
C_PMP63314       2                PMP63314         0.542233934 100      24.76778793 0.62933934 0                        
C_PMP63315       2                PMP63315         0.277627841 86.32987825 17.51611519 0.65666687 0                        
C_PMP63316       2                PMP63316         0.184127637 64.80783746 14.86067295 1.00013387 0                        
C_PMP92820       1                PMP92820         0.46469401 100      17.51611519 0.93776041 0                        
C_PMP92821       1                PMP92821         0.181754347 100      14.86067295 0        0                        
C_PMP92822       1                PMP92822         0.106829675 100      3.50322318 0.9608674 0                        
C_PMP92827       5                PMP92827         1.47627198 100      48.68779373 3.96888518 0                        
C_PMP92828       5                PMP92828         0.05661909 82.47331879 3.50322318 4.04775858 0                        
C_PMP92829       1                PMP92829         0.10327266 100      4.95355749 3.39706683 0                        
C_PMP92830       1                PMP92830         0.104936494 100      10.5096693 0        0                        
C_PMP92834       1                PMP92834         0.966844484 100      44.58201981 0.47513971 0                        
C_PMP92838       1                PMP92838         0.763986203 93.81908947 31.52900887 0.50607049 0                        
C_PMP92840       2                PMP92840         0.314953387 100      18.96644974 0.79596925 0                        
C_PMP92841       2                PMP92841         0.838846383 82.37158438 38.7806778 0.11948884 0                        
C_PMP92842       4                PMP92842         0.335060619 100      14.86067295 0.60875386 0                        
C_PMP92843       3                PMP92843         0.402130292 100      24.76778793 1.04364955 0                        
C_PMP92844       2                PMP92844         0.853015462 100      38.7806778 0.78082502 0                        
C_PMP92845       3                PMP92845         0.471661091 100      28.87356758 1.70046842 0                        
C_PMP92846       2                PMP92846         0.185258333 100      10.5096693 0.70442283 0                        
C_PMP92847       3                PMP92847         0.434441465 100      24.76778793 2.35918617 0                        
C_PMP92848       3                PMP92848         0.209015291 100      14.86067295 2.20622683 0                        
C_PMP92849       3                PMP92849         0.062638251 100      10.5096693 2.20622683 0                        
C_PMP92850       2                PMP92850         0.787603404 77.59830626 34.67490387 0.61262113 0                        
C_PMP92851       1                PMP92851         1.064469227 94.65495815 45.54190063 0.24385312 0                        
C_PMP92852       4                PMP92852         1.050207669 100      41.68134689 0.6272819 0                        
C_PMP92853       2                PMP92853         0.360635126 100      21.86711884 0.95667046 0                        
C_PMP92854       2                PMP92854         0.777012048 78.50019253 34.67490387 0.57688069 0                        
C_PMP92855       4                PMP92855         0.381897805 100      21.86711884 0.6215896 0                        
C_PMP92856       2                PMP92856         0.812430003 100      31.77423286 0.93045884 0                        
C_PMP92857       2                PMP92857         0.637042103 100      31.77423286 0.53867877 0                        
C_PMP92859       3                PMP92859         0.363851139 74.78861986 18.96644974 2.78246331 0                        
C_PMP92860       4                PMP92860         1.020753514 100      44.58201981 0.72908372 0                        
C_PMP92861       3                PMP92861         0.377413895 46.34779978 24.76778793 2.96932864 0                        
C_PMP92862       3                PMP92862         0.551785646 100      31.77423286 4.35276985 0                        
C_PMP92863       5                PMP92863         1.151268178 100      51.58846283 2.98743653 0                        
C_PMP92864       5                PMP92864         0.990493267 100      46.99223328 3.21304297 0                        
C_PMP92865       5                PMP92865         0.064990447 100      4.95355749 1.78028595 0                        
C_PMP92866       1                PMP92866         0.398599472 100      25.97289658 0.42347097 0                        
C_PMP92867       3                PMP92867         0.365887135 79.62586919 21.86711884 6.13878727 0                        
C_PMP92868       1                PMP92868         0.399615231 100      28.87356758 0.2664327 0                        
C_PMP92869       1                PMP92869         0.117406662 100      11.96000385 0.08995146 0                        
C_PMP92870       2                PMP92870         0.041930367 100      4.95355749 1.09631264 0                        
C_PMP92871       2                PMP92871         0.315437912 100      24.76778793 1.21443975 0                        
C_PMP92872       1                PMP92872         0.899600385 99.45528358 38.5354538 0.53099602 0                        
C_PMP92873       2                PMP92873         0.11479512 100      11.96000385 1.56492639 0                        
C_PMP92874       2                PMP92874         0.020367348 100      3.50322318 1.78643525 0                        
C_PMP92875       2                PMP92875         0.073177322 100      4.95355749 0.22712007 0                        
C_PMP92876       5                PMP92876         0.279263406 100      18.96644974 1.78028595 0                        
C_PMP92877       1                PMP92877         0.408816833 100      24.52256203 0.18954492 0                        
C_PMP92878       1                PMP92878         0.733691286 100      31.52900887 0.15785046 0                        
C_PMP92879       4                PMP92879         0.437358789 72.85612067 24.76778793 0.7461859 0                        
C_PMP92880       2                PMP92880         0.321713044 100      21.86711884 1.0383445 0                        
C_PMP92881       2                PMP92881         0.758095742 84.56050565 38.5354538 0.62455863 0                        
C_PMP92882       3                PMP92882         0.445895732 100      28.87356758 0.88890719 0                        
C_PMP92883       4                PMP92883         0.395990772 100      24.76778793 1.26844156 0                        
C_PMP92884       3                PMP92884         16.07873207 9.187222932 140.7732849 41.52225876 0                        
C_PMP92885       4                PMP92885         0.213952065 96.82588632 11.96000385 1.1541431 0                        
C_PMP92886       3                PMP92886         0.356962307 100      21.86711884 1.0745486 0                        
C_PMP92887       4                PMP92887         1.136202415 100      44.58201981 0.1993534 0                        
C_PMP92888       4                PMP92888         0.260456209 100      10.5096693 0.86855471 0                        
C_PMP92889       3                PMP92889         0.417605219 100      24.52256203 2.03948593 0                        
C_PMP92890       3                PMP92890         0.398667676 100      24.52256203 3.0367775 0                        
C_PMP92891       4                PMP92891         0.706029354 88.96899528 34.67490387 1.5511868 0                        
C_PMP92892       3                PMP92892         0.11980089 100      4.95355749 4.91296816 0                        
C_PMP92893       4                PMP92893         0.841328059 100      41.68134689 0.58934009 0                        
C_PMP92894       3                PMP92894         0.223623192 100      14.86067295 1.77061045 0                        
C_PMP92895       4                PMP92895         0.400842518 100      24.76778793 0.97499728 0                        
C_PMP92896       4                PMP92896         0.492595758 100      28.87356758 1.78134  0                        
C_PMP92897       4                PMP92897         0.295826291 100      21.86711884 1.13997352 0                        
C_PMP92898       4                PMP92898         0.391152217 100      21.86711884 0.56838953 0                        
C_PMP92899       3                PMP92899         0.808614343 82.28715505 34.67490387 3.29949307 0                        
C_PMP92900       5                PMP92900         0.094933345 100      21.86711884 3.44276571 0                        
C_PMP92901       5                PMP92901         0.690088392 99.2430221 38.5354538 4.04775858 0                        
C_PMP92902       5                PMP92902         0.414126203 86.87126951 21.86711884 13.42389584 0                        
C_PMP92903       5                PMP92903         1.124351033 85.33682321 41.68134689 4.31516933 0                        
C_PMP92904       5                PMP92904         0.60128177 93.29539192 31.77423286 3.21964717 0                        
C_PMP92905       2                PMP92905         0.642125761 100      31.77423286 0.63011348 0                        
C_PMP92906       3                PMP92906         0.618329491 100      34.67490387 2.4656992 0                        
C_PMP92907       5                PMP92907         0.169371882 1.517119518 11.96000385 6.77210712 0                        
C_PMP92908       1                PMP92908         0.320440959 100      17.51611519 1.1398592 0                        
C_PMP92909       1                PMP92909         0.34029068 100      24.52256203 2.43206549 0                        
C_PMP92910       1                PMP92910         0.240460998 100      17.51611519 0.43365124 0                        
C_PMP92911       1                PMP92911         0.583687916 100      31.52900887 0.49952954 0                        